Circuit: * C:\Users\steve\Documents\School\2024Spring\Special\Automatic-Starting-Rotary-Phase-Converter\Extra Math\Spice_Model.asc

Direct Newton iteration for .op point succeeded.

Date: Wed Apr 17 02:41:15 2024
Total elapsed time: 0.052 seconds.

tnom = 27
temp = 27
method = modified trap
totiter = 2135
traniter = 2132
tranpoints = 1067
accept = 1066
rejected = 1
matrix size = 5
fillins = 0
solver = Normal
Matrix Compiler1: 168 bytes object code size  0.0/0.0/[0.0]
Matrix Compiler2: off  [0.0]/0.0/0.0

